# generated using pymatgen
data_CuH12C11NO4
_symmetry_space_group_name_H-M   'P 1'
_cell_length_a   25.66699985
_cell_length_b   13.07600000
_cell_length_c   8.72500000
_cell_angle_alpha   90.00000000
_cell_angle_beta   95.07000093
_cell_angle_gamma   90.00000000
_symmetry_Int_Tables_number   1
_chemical_formula_structural   CuH12C11NO4
_chemical_formula_sum   'Cu8 H96 C88 N8 O32'
_cell_volume   2916.84219343
_cell_formula_units_Z   8
loop_
 _symmetry_equiv_pos_site_id
 _symmetry_equiv_pos_as_xyz
  1  'x, y, z'
loop_
 _atom_site_type_symbol
 _atom_site_label
 _atom_site_symmetry_multiplicity
 _atom_site_fract_x
 _atom_site_fract_y
 _atom_site_fract_z
 _atom_site_occupancy
  Cu  Cu0  1  0.29264000  0.29674000  0.06182000  1
  Cu  Cu1  1  0.79264000  0.79674000  0.06182000  1
  Cu  Cu2  1  0.70736000  0.29674000  0.43818000  1
  Cu  Cu3  1  0.20736000  0.79674000  0.43818000  1
  Cu  Cu4  1  0.70736000  0.70326000  0.93818000  1
  Cu  Cu5  1  0.20736000  0.20326000  0.93818000  1
  Cu  Cu6  1  0.29264000  0.70326000  0.56182000  1
  Cu  Cu7  1  0.79264000  0.20326000  0.56182000  1
  H  H8  1  0.18590000  0.22850000  0.46590000  1
  H  H9  1  0.14160000  0.28890000  0.36920000  1
  H  H10  1  0.18120000  0.39390000  0.56550000  1
  H  H11  1  0.23570000  0.37950000  0.49990000  1
  H  H12  1  0.20010000  0.46090000  0.26810000  1
  H  H13  1  0.14970000  0.48470000  0.35010000  1
  H  H14  1  0.39610000  0.23990000  0.24540000  1
  H  H15  1  0.45930000  0.30230000  0.42010000  1
  H  H16  1  0.39080000  0.57560000  0.37570000  1
  H  H17  1  0.33020000  0.50650000  0.20050000  1
  H  H18  1  0.46230000  0.55300000  0.57700000  1
  H  H19  1  0.48150000  0.44210000  0.62010000  1
  H  H20  1  0.68590000  0.72850000  0.46590000  1
  H  H21  1  0.64160000  0.78890000  0.36920000  1
  H  H22  1  0.68120000  0.89390000  0.56550000  1
  H  H23  1  0.73570000  0.87950000  0.49990000  1
  H  H24  1  0.70010000  0.96090000  0.26810000  1
  H  H25  1  0.64970000  0.98470000  0.35010000  1
  H  H26  1  0.89610000  0.73990000  0.24540000  1
  H  H27  1  0.95930000  0.80230000  0.42010000  1
  H  H28  1  0.89080000  0.07560000  0.37570000  1
  H  H29  1  0.83020000  0.00650000  0.20050000  1
  H  H30  1  0.96230000  0.05300000  0.57700000  1
  H  H31  1  0.98150000  0.94210000  0.62010000  1
  H  H32  1  0.81410000  0.22850000  0.03410000  1
  H  H33  1  0.85840000  0.28890000  0.13080000  1
  H  H34  1  0.81880000  0.39390000  0.93450000  1
  H  H35  1  0.76430000  0.37950000  0.00010000  1
  H  H36  1  0.79990000  0.46090000  0.23190000  1
  H  H37  1  0.85030000  0.48470000  0.14990000  1
  H  H38  1  0.60390000  0.23990000  0.25460000  1
  H  H39  1  0.54070000  0.30230000  0.07990000  1
  H  H40  1  0.60920000  0.57560000  0.12430000  1
  H  H41  1  0.66980000  0.50650000  0.29950000  1
  H  H42  1  0.53770000  0.55300000  0.92300000  1
  H  H43  1  0.51850000  0.44210000  0.87990000  1
  H  H44  1  0.31410000  0.72850000  0.03410000  1
  H  H45  1  0.35840000  0.78890000  0.13080000  1
  H  H46  1  0.31880000  0.89390000  0.93450000  1
  H  H47  1  0.26430000  0.87950000  0.00010000  1
  H  H48  1  0.29990000  0.96090000  0.23190000  1
  H  H49  1  0.35030000  0.98470000  0.14990000  1
  H  H50  1  0.10390000  0.73990000  0.25460000  1
  H  H51  1  0.04070000  0.80230000  0.07990000  1
  H  H52  1  0.10920000  0.07560000  0.12430000  1
  H  H53  1  0.16980000  0.00650000  0.29950000  1
  H  H54  1  0.03770000  0.05300000  0.92300000  1
  H  H55  1  0.01850000  0.94210000  0.87990000  1
  H  H56  1  0.81410000  0.77150000  0.53410000  1
  H  H57  1  0.85840000  0.71110000  0.63080000  1
  H  H58  1  0.81880000  0.60610000  0.43450000  1
  H  H59  1  0.76430000  0.62050000  0.50010000  1
  H  H60  1  0.79990000  0.53910000  0.73190000  1
  H  H61  1  0.85030000  0.51530000  0.64990000  1
  H  H62  1  0.60390000  0.76010000  0.75460000  1
  H  H63  1  0.54070000  0.69770000  0.57990000  1
  H  H64  1  0.60920000  0.42440000  0.62430000  1
  H  H65  1  0.66980000  0.49350000  0.79950000  1
  H  H66  1  0.53770000  0.44700000  0.42300000  1
  H  H67  1  0.51850000  0.55790000  0.37990000  1
  H  H68  1  0.31410000  0.27150000  0.53410000  1
  H  H69  1  0.35840000  0.21110000  0.63080000  1
  H  H70  1  0.31880000  0.10610000  0.43450000  1
  H  H71  1  0.26430000  0.12050000  0.50010000  1
  H  H72  1  0.29990000  0.03910000  0.73190000  1
  H  H73  1  0.35030000  0.01530000  0.64990000  1
  H  H74  1  0.10390000  0.26010000  0.75460000  1
  H  H75  1  0.04070000  0.19770000  0.57990000  1
  H  H76  1  0.10920000  0.92440000  0.62430000  1
  H  H77  1  0.16980000  0.99350000  0.79950000  1
  H  H78  1  0.03770000  0.94700000  0.42300000  1
  H  H79  1  0.01850000  0.05790000  0.37990000  1
  H  H80  1  0.18590000  0.77150000  0.96590000  1
  H  H81  1  0.14160000  0.71110000  0.86920000  1
  H  H82  1  0.18120000  0.60610000  0.06550000  1
  H  H83  1  0.23570000  0.62050000  0.99990000  1
  H  H84  1  0.20010000  0.53910000  0.76810000  1
  H  H85  1  0.14970000  0.51530000  0.85010000  1
  H  H86  1  0.39610000  0.76010000  0.74540000  1
  H  H87  1  0.45930000  0.69770000  0.92010000  1
  H  H88  1  0.39080000  0.42440000  0.87570000  1
  H  H89  1  0.33020000  0.49350000  0.70050000  1
  H  H90  1  0.46230000  0.44700000  0.07700000  1
  H  H91  1  0.48150000  0.55790000  0.12010000  1
  H  H92  1  0.68590000  0.27150000  0.96590000  1
  H  H93  1  0.64160000  0.21110000  0.86920000  1
  H  H94  1  0.68120000  0.10610000  0.06550000  1
  H  H95  1  0.73570000  0.12050000  0.99990000  1
  H  H96  1  0.70010000  0.03910000  0.76810000  1
  H  H97  1  0.64970000  0.01530000  0.85010000  1
  H  H98  1  0.89610000  0.26010000  0.74540000  1
  H  H99  1  0.95930000  0.19770000  0.92010000  1
  H  H100  1  0.89080000  0.92440000  0.87570000  1
  H  H101  1  0.83020000  0.99350000  0.70050000  1
  H  H102  1  0.96230000  0.94700000  0.07700000  1
  H  H103  1  0.98150000  0.05790000  0.12010000  1
  C  C104  1  0.20543000  0.26250000  0.24830000  1
  C  C105  1  0.17914000  0.28470000  0.39430000  1
  C  C106  1  0.19838000  0.38430000  0.47190000  1
  C  C107  1  0.18730000  0.47620000  0.36700000  1
  C  C108  1  0.21093000  0.57720000  0.42370000  1
  C  C109  1  0.39522000  0.30880000  0.27120000  1
  C  C110  1  0.43319000  0.34580000  0.37780000  1
  C  C111  1  0.43277000  0.44610000  0.42190000  1
  C  C112  1  0.39278000  0.50660000  0.35090000  1
  C  C113  1  0.35666000  0.46470000  0.24550000  1
  C  C114  1  0.47480000  0.48970000  0.53540000  1
  C  C115  1  0.70543000  0.76250000  0.24830000  1
  C  C116  1  0.67914000  0.78470000  0.39430000  1
  C  C117  1  0.69838000  0.88430000  0.47190000  1
  C  C118  1  0.68730000  0.97620000  0.36700000  1
  C  C119  1  0.71093000  0.07720000  0.42370000  1
  C  C120  1  0.89522000  0.80880000  0.27120000  1
  C  C121  1  0.93319000  0.84580000  0.37780000  1
  C  C122  1  0.93277000  0.94610000  0.42190000  1
  C  C123  1  0.89278000  0.00660000  0.35090000  1
  C  C124  1  0.85666000  0.96470000  0.24550000  1
  C  C125  1  0.97480000  0.98970000  0.53540000  1
  C  C126  1  0.79457000  0.26250000  0.25170000  1
  C  C127  1  0.82086000  0.28470000  0.10570000  1
  C  C128  1  0.80162000  0.38430000  0.02810000  1
  C  C129  1  0.81270000  0.47620000  0.13300000  1
  C  C130  1  0.78907000  0.57720000  0.07630000  1
  C  C131  1  0.60478000  0.30880000  0.22880000  1
  C  C132  1  0.56681000  0.34580000  0.12220000  1
  C  C133  1  0.56723000  0.44610000  0.07810000  1
  C  C134  1  0.60722000  0.50660000  0.14910000  1
  C  C135  1  0.64334000  0.46470000  0.25450000  1
  C  C136  1  0.52520000  0.48970000  0.96460000  1
  C  C137  1  0.29457000  0.76250000  0.25170000  1
  C  C138  1  0.32086000  0.78470000  0.10570000  1
  C  C139  1  0.30162000  0.88430000  0.02810000  1
  C  C140  1  0.31270000  0.97620000  0.13300000  1
  C  C141  1  0.28907000  0.07720000  0.07630000  1
  C  C142  1  0.10478000  0.80880000  0.22880000  1
  C  C143  1  0.06681000  0.84580000  0.12220000  1
  C  C144  1  0.06723000  0.94610000  0.07810000  1
  C  C145  1  0.10722000  0.00660000  0.14910000  1
  C  C146  1  0.14334000  0.96470000  0.25450000  1
  C  C147  1  0.02520000  0.98970000  0.96460000  1
  C  C148  1  0.79457000  0.73750000  0.75170000  1
  C  C149  1  0.82086000  0.71530000  0.60570000  1
  C  C150  1  0.80162000  0.61570000  0.52810000  1
  C  C151  1  0.81270000  0.52380000  0.63300000  1
  C  C152  1  0.78907000  0.42280000  0.57630000  1
  C  C153  1  0.60478000  0.69120000  0.72880000  1
  C  C154  1  0.56681000  0.65420000  0.62220000  1
  C  C155  1  0.56723000  0.55390000  0.57810000  1
  C  C156  1  0.60722000  0.49340000  0.64910000  1
  C  C157  1  0.64334000  0.53530000  0.75450000  1
  C  C158  1  0.52520000  0.51030000  0.46460000  1
  C  C159  1  0.29457000  0.23750000  0.75170000  1
  C  C160  1  0.32086000  0.21530000  0.60570000  1
  C  C161  1  0.30162000  0.11570000  0.52810000  1
  C  C162  1  0.31270000  0.02380000  0.63300000  1
  C  C163  1  0.28907000  0.92280000  0.57630000  1
  C  C164  1  0.10478000  0.19120000  0.72880000  1
  C  C165  1  0.06681000  0.15420000  0.62220000  1
  C  C166  1  0.06723000  0.05390000  0.57810000  1
  C  C167  1  0.10722000  0.99340000  0.64910000  1
  C  C168  1  0.14334000  0.03530000  0.75450000  1
  C  C169  1  0.02520000  0.01030000  0.46460000  1
  C  C170  1  0.20543000  0.73750000  0.74830000  1
  C  C171  1  0.17914000  0.71530000  0.89430000  1
  C  C172  1  0.19838000  0.61570000  0.97190000  1
  C  C173  1  0.18730000  0.52380000  0.86700000  1
  C  C174  1  0.21093000  0.42280000  0.92370000  1
  C  C175  1  0.39522000  0.69120000  0.77120000  1
  C  C176  1  0.43319000  0.65420000  0.87780000  1
  C  C177  1  0.43277000  0.55390000  0.92190000  1
  C  C178  1  0.39278000  0.49340000  0.85090000  1
  C  C179  1  0.35666000  0.53530000  0.74550000  1
  C  C180  1  0.47480000  0.51030000  0.03540000  1
  C  C181  1  0.70543000  0.23750000  0.74830000  1
  C  C182  1  0.67914000  0.21530000  0.89430000  1
  C  C183  1  0.69838000  0.11570000  0.97190000  1
  C  C184  1  0.68730000  0.02380000  0.86700000  1
  C  C185  1  0.71093000  0.92280000  0.92370000  1
  C  C186  1  0.89522000  0.19120000  0.77120000  1
  C  C187  1  0.93319000  0.15420000  0.87780000  1
  C  C188  1  0.93277000  0.05390000  0.92190000  1
  C  C189  1  0.89278000  0.99340000  0.85090000  1
  C  C190  1  0.85666000  0.03530000  0.74550000  1
  C  C191  1  0.97480000  0.01030000  0.03540000  1
  N  N192  1  0.35746000  0.36600000  0.20350000  1
  N  N193  1  0.85746000  0.86600000  0.20350000  1
  N  N194  1  0.64254000  0.36600000  0.29650000  1
  N  N195  1  0.14254000  0.86600000  0.29650000  1
  N  N196  1  0.64254000  0.63400000  0.79650000  1
  N  N197  1  0.14254000  0.13400000  0.79650000  1
  N  N198  1  0.35746000  0.63400000  0.70350000  1
  N  N199  1  0.85746000  0.13400000  0.70350000  1
  O  O200  1  0.25179000  0.29209000  0.24320000  1
  O  O201  1  0.17892000  0.21720000  0.14010000  1
  O  O202  1  0.18381000  0.65509000  0.39210000  1
  O  O203  1  0.25549000  0.57623000  0.49320000  1
  O  O204  1  0.75179000  0.79209000  0.24320000  1
  O  O205  1  0.67892000  0.71720000  0.14010000  1
  O  O206  1  0.68381000  0.15509000  0.39210000  1
  O  O207  1  0.75549000  0.07623000  0.49320000  1
  O  O208  1  0.74821000  0.29209000  0.25680000  1
  O  O209  1  0.82108000  0.21720000  0.35990000  1
  O  O210  1  0.81619000  0.65509000  0.10790000  1
  O  O211  1  0.74451000  0.57623000  0.00680000  1
  O  O212  1  0.24821000  0.79209000  0.25680000  1
  O  O213  1  0.32108000  0.71720000  0.35990000  1
  O  O214  1  0.31619000  0.15509000  0.10790000  1
  O  O215  1  0.24451000  0.07623000  0.00680000  1
  O  O216  1  0.74821000  0.70791000  0.75680000  1
  O  O217  1  0.82108000  0.78280000  0.85990000  1
  O  O218  1  0.81619000  0.34491000  0.60790000  1
  O  O219  1  0.74451000  0.42377000  0.50680000  1
  O  O220  1  0.24821000  0.20791000  0.75680000  1
  O  O221  1  0.32108000  0.28280000  0.85990000  1
  O  O222  1  0.31619000  0.84491000  0.60790000  1
  O  O223  1  0.24451000  0.92377000  0.50680000  1
  O  O224  1  0.25179000  0.70791000  0.74320000  1
  O  O225  1  0.17892000  0.78280000  0.64010000  1
  O  O226  1  0.18381000  0.34491000  0.89210000  1
  O  O227  1  0.25549000  0.42377000  0.99320000  1
  O  O228  1  0.75179000  0.20791000  0.74320000  1
  O  O229  1  0.67892000  0.28280000  0.64010000  1
  O  O230  1  0.68381000  0.84491000  0.89210000  1
  O  O231  1  0.75549000  0.92377000  0.99320000  1
